!-Generator IDFEditor 1.55
!-Option SortedOrder

!-NOTE: All comments with '!-' are ignored by the IDFEditor and are generated automatically.
!-      Use '!' comments if they need to be retained when using the IDFEditor.


!-   ===========  ALL OBJECTS IN CLASS: VERSION ===========

Version,
    25.2;                    !- Version Identifier


!-   ===========  ALL OBJECTS IN CLASS: SIMULATIONCONTROL ===========

SimulationControl,
    Yes,                     !- Do Zone Sizing Calculation
    Yes,                     !- Do System Sizing Calculation
    Yes,                     !- Do Plant Sizing Calculation
    No,                      !- Run Simulation for Sizing Periods
    Yes,                     !- Run Simulation for Weather File Run Periods
    ,                        !- Do HVAC Sizing Simulation for Sizing Periods
    ;                        !- Maximum Number of HVAC Sizing Simulation Passes


!-   ===========  ALL OBJECTS IN CLASS: BUILDING ===========

Building,
    MyBuilding,              !- Name
    0,                       !- North Axis {deg}
    Suburbs,                 !- Terrain
    0.04,                    !- Loads Convergence Tolerance Value {W}
    0.4,                     !- Temperature Convergence Tolerance Value {deltaC}
    FullExterior,            !- Solar Distribution
    25,                      !- Maximum Number of Warmup Days
    1;                       !- Minimum Number of Warmup Days


!-   ===========  ALL OBJECTS IN CLASS: TIMESTEP ===========

Timestep,
    4;                       !- Number of Timesteps per Hour


!-   ===========  ALL OBJECTS IN CLASS: SITE:LOCATION ===========

Site:Location,
    PORTO_PRT,               !- Name
    41.23,                   !- Latitude {deg}
    -8.68,                   !- Longitude {deg}
    0.00,                    !- Time Zone {hr}
    73.00;                   !- Elevation {m}


!-   ===========  ALL OBJECTS IN CLASS: SIZINGPERIOD:DESIGNDAY ===========

SizingPeriod:DesignDay,
    PORTO Ann Htg 99.6%,     !- Name
    1,                       !- Month
    21,                      !- Day of Month
    WinterDesignDay,         !- Day Type
    1.9,                     !- Maximum Dry-Bulb Temperature {C}
    0.0,                     !- Daily Dry-Bulb Temperature Range {deltaC}
    DefaultMultipliers,      !- Dry-Bulb Temperature Range Modifier Type
    ,                        !- Dry-Bulb Temperature Range Modifier Day Schedule Name
    Wetbulb,                 !- Humidity Condition Type
    1.9,                     !- Wetbulb or DewPoint at Maximum Dry-Bulb {C}
    ,                        !- Humidity Condition Day Schedule Name
    ,                        !- Humidity Ratio at Maximum Dry-Bulb {kgWater/kgDryAir}
    ,                        !- Enthalpy at Maximum Dry-Bulb {J/kg}
    ,                        !- Daily Wet-Bulb Temperature Range {deltaC}
    100451.,                 !- Barometric Pressure {Pa}
    2.5,                     !- Wind Speed {m/s}
    90,                      !- Wind Direction {deg}
    No,                      !- Rain Indicator
    No,                      !- Snow Indicator
    No,                      !- Daylight Saving Time Indicator
    ASHRAEClearSky,          !- Solar Model Indicator
    ,                        !- Beam Solar Day Schedule Name
    ,                        !- Diffuse Solar Day Schedule Name
    ,                        !- ASHRAE Clear Sky Optical Depth for Beam Irradiance (taub) {dimensionless}
    ,                        !- ASHRAE Clear Sky Optical Depth for Diffuse Irradiance (taud) {dimensionless}
    0.00;                    !- Sky Clearness

SizingPeriod:DesignDay,
    PORTO Ann Clg .4%,       !- Name
    8,                       !- Month
    21,                      !- Day of Month
    SummerDesignDay,         !- Day Type
    30.3,                    !- Maximum Dry-Bulb Temperature {C}
    9,                       !- Daily Dry-Bulb Temperature Range {deltaC}
    DefaultMultipliers,      !- Dry-Bulb Temperature Range Modifier Type
    ,                        !- Dry-Bulb Temperature Range Modifier Day Schedule Name
    Wetbulb,                 !- Humidity Condition Type
    19.3,                    !- Wetbulb or DewPoint at Maximum Dry-Bulb {C}
    ,                        !- Humidity Condition Day Schedule Name
    ,                        !- Humidity Ratio at Maximum Dry-Bulb {kgWater/kgDryAir}
    ,                        !- Enthalpy at Maximum Dry-Bulb {J/kg}
    ,                        !- Daily Wet-Bulb Temperature Range {deltaC}
    100451.,                 !- Barometric Pressure {Pa}
    3.8,                     !- Wind Speed {m/s}
    320,                     !- Wind Direction {deg}
    No,                      !- Rain Indicator
    No,                      !- Snow Indicator
    No,                      !- Daylight Saving Time Indicator
    ASHRAETau,               !- Solar Model Indicator
    ,                        !- Beam Solar Day Schedule Name
    ,                        !- Diffuse Solar Day Schedule Name
    0.421,                   !- ASHRAE Clear Sky Optical Depth for Beam Irradiance (taub) {dimensionless}
    2.146;                   !- ASHRAE Clear Sky Optical Depth for Diffuse Irradiance (taud) {dimensionless}


!-   ===========  ALL OBJECTS IN CLASS: RUNPERIOD ===========

RunPeriod,
    AnnualRun,               !- Name
    1,                       !- Begin Month
    1,                       !- Begin Day of Month
    ,                        !- Begin Year
    12,                      !- End Month
    31,                      !- End Day of Month
    ,                        !- End Year
    Sunday,                  !- Day of Week for Start Day
    Yes,                     !- Use Weather File Holidays and Special Days
    Yes,                     !- Use Weather File Daylight Saving Period
    ,                        !- Apply Weekend Holiday Rule
    Yes,                     !- Use Weather File Rain Indicators
    Yes;                     !- Use Weather File Snow Indicators


!-   ===========  ALL OBJECTS IN CLASS: SITE:GROUNDTEMPERATURE:BUILDINGSURFACE ===========

Site:GroundTemperature:BuildingSurface,
    10.18,                   !- January Ground Temperature {C}
    9.78,                    !- February Ground Temperature {C}
    10.50,                   !- March Ground Temperature {C}
    11.62,                   !- April Ground Temperature {C}
    14.56,                   !- May Ground Temperature {C}
    16.83,                   !- June Ground Temperature {C}
    18.36,                   !- July Ground Temperature {C}
    18.82,                   !- August Ground Temperature {C}
    18.03,                   !- September Ground Temperature {C}
    16.27,                   !- October Ground Temperature {C}
    13.92,                   !- November Ground Temperature {C}
    11.73;                   !- December Ground Temperature {C}


!-   ===========  ALL OBJECTS IN CLASS: SCHEDULETYPELIMITS ===========

ScheduleTypeLimits,
    Fraction,                !- Name
    0,                       !- Lower Limit Value
    1,                       !- Upper Limit Value
    Continuous,              !- Numeric Type
    Dimensionless;           !- Unit Type

ScheduleTypeLimits,
    Activity,                !- Name
    ,                        !- Lower Limit Value
    ,                        !- Upper Limit Value
    Continuous,              !- Numeric Type
    ActivityLevel;           !- Unit Type

ScheduleTypeLimits,
    ThermostatControlType,   !- Name
    0,                       !- Lower Limit Value
    4,                       !- Upper Limit Value
    Discrete,                !- Numeric Type
    Dimensionless;           !- Unit Type

ScheduleTypeLimits,
    Temperature,             !- Name
    -60,                     !- Lower Limit Value
    200,                     !- Upper Limit Value
    Continuous,              !- Numeric Type
    Temperature;             !- Unit Type


!-   ===========  ALL OBJECTS IN CLASS: SCHEDULE:COMPACT ===========

Schedule:Compact,
    HW_SupplyTemp_Sch,       !- Name
    Temperature,             !- Schedule Type Limits Name
    Through: 12/31,          !- Field 1
    For: AllDays,            !- Field 2
    Until: 24:00,            !- Field 3
    60.0;                    !- Field 4

Schedule:Compact,
    CHW_Supply_Temp_Sch,     !- Name
    Temperature,             !- Schedule Type Limits Name
    Through: 12/31,          !- Field 1
    For: AllDays,            !- Field 2
    Until: 24:00,            !- Field 3
    7.0;                     !- Field 4

Schedule:Compact,
    DHW_TSET_SCH,            !- Name
    Temperature,             !- Schedule Type Limits Name
    THROUGH: 12/31,          !- Field 1
    FOR: AllDays,            !- Field 2
    Until: 24:00,            !- Field 3
    52.0;                    !- Field 4

! =========================================================
! DHW PLANT LOOP (matches your nodes: DHW_In_N / DHW_Out_N)
! =========================================================
Schedule:Compact,
    DHW_LoopTemp_Sch,        !- Name
    Temperature,             !- Schedule Type Limits Name
    Through: 12/31,          !- Field 1
    For: AllDays,            !- Field 2
    Until: 24:00,            !- Field 3
    60.0;                    !- Field 4

Schedule:Compact,
    DHW_UseTargetTemp_Sch,   !- Name
    Temperature,             !- Schedule Type Limits Name
    Through: 12/31,          !- Field 1
    For: AllDays,            !- Field 2
    Until: 24:00,            !- Field 3
    40.0;                    !- Field 4

Schedule:Compact,
    DHW_HotSupplyTemp_Sch,   !- Name
    Temperature,             !- Schedule Type Limits Name
    Through: 12/31,          !- Field 1
    For: AllDays,            !- Field 2
    Until: 24:00,            !- Field 3
    52.0;                    !- Field 4

Schedule:Compact,
    DHW_ColdSupplyTemp_Sch,  !- Name
    Temperature,             !- Schedule Type Limits Name
    Through: 12/31,          !- Field 1
    For: AllDays,            !- Field 2
    Until: 24:00,            !- Field 3
    15.0;                    !- Field 4

Schedule:Compact,
    DHW_DrawFrac_Sch,        !- Name
    Fraction,                !- Schedule Type Limits Name
    Through: 12/31,          !- Field 1
    For: AllDays,            !- Field 2
    Until: 06:00,            !- Field 3
    0.05,                    !- Field 4
    Until: 08:30,            !- Field 5
    0.30,                    !- Field 6
    Until: 18:00,            !- Field 7
    0.08,                    !- Field 8
    Until: 22:30,            !- Field 9
    0.30,                    !- Field 10
    Until: 24:00,            !- Field 11
    0.08;                    !- Field 12

Schedule:Compact,
    Occupancy_Sch,           !- Name
    Fraction,                !- Schedule Type Limits Name
    Through: 12/31,          !- Field 1
    For: AllDays,            !- Field 2
    Until: 06:00,            !- Field 3
    0.90,                    !- Field 4
    Until: 08:00,            !- Field 5
    0.60,                    !- Field 6
    Until: 17:00,            !- Field 7
    0.25,                    !- Field 8
    Until: 23:00,            !- Field 9
    0.85,                    !- Field 10
    Until: 24:00,            !- Field 11
    0.95;                    !- Field 12

Schedule:Compact,
    Lighting_Sch,            !- Name
    Fraction,                !- Schedule Type Limits Name
    Through: 12/31,          !- Field 1
    For: AllDays,            !- Field 2
    Until: 06:00,            !- Field 3
    0.10,                    !- Field 4
    Until: 08:00,            !- Field 5
    0.45,                    !- Field 6
    Until: 17:00,            !- Field 7
    0.10,                    !- Field 8
    Until: 23:00,            !- Field 9
    0.85,                    !- Field 10
    Until: 24:00,            !- Field 11
    0.30;                    !- Field 12

Schedule:Compact,
    Equipment_Sch,           !- Name
    Fraction,                !- Schedule Type Limits Name
    Through: 12/31,          !- Field 1
    For: AllDays,            !- Field 2
    Until: 06:00,            !- Field 3
    0.25,                    !- Field 4
    Until: 08:00,            !- Field 5
    0.50,                    !- Field 6
    Until: 17:00,            !- Field 7
    0.35,                    !- Field 8
    Until: 23:00,            !- Field 9
    0.80,                    !- Field 10
    Until: 24:00,            !- Field 11
    0.40;                    !- Field 12


!-   ===========  ALL OBJECTS IN CLASS: SCHEDULE:CONSTANT ===========

Schedule:Constant,
    AlwaysOn,                !- Name
    Fraction,                !- Schedule Type Limits Name
    1.0;                     !- Hourly Value

Schedule:Constant,
    Tstat_Dual_Control,      !- Name
    ThermostatControlType,   !- Schedule Type Limits Name
    4;                       !- Hourly Value

Schedule:Constant,
    HTG_Setpoint_Sch,        !- Name
    Temperature,             !- Schedule Type Limits Name
    20.0;                    !- Hourly Value

Schedule:Constant,
    CLG_Setpoint_Sch,        !- Name
    Temperature,             !- Schedule Type Limits Name
    26.0;                    !- Hourly Value

Schedule:Constant,
    Occ_Activity_Sch,        !- Name
    Activity,                !- Schedule Type Limits Name
    120.0;                   !- Hourly Value


!-   ===========  ALL OBJECTS IN CLASS: MATERIAL ===========

Material,
    PedraRevestimento,       !- Name
    MediumRough,             !- Roughness
    0.020,                   !- Thickness {m}
    3.50,                    !- Conductivity {W/m-K}
    2700,                    !- Density {kg/m3}
    1000,                    !- Specific Heat {J/kg-K}
    0.90,                    !- Thermal Absorptance
    0.60,                    !- Solar Absorptance
    0.60;                    !- Visible Absorptance

Material,
    Tijolo,                  !- Name
    Rough,                   !- Roughness
    0.150,                   !- Thickness {m}
    0.41,                    !- Conductivity {W/m-K}
    455,                     !- Density {kg/m3}
    900,                     !- Specific Heat {J/kg-K}
    0.90,                    !- Thermal Absorptance
    0.60,                    !- Solar Absorptance
    0.60;                    !- Visible Absorptance

Material,
    EPS_Wall_06cm,           !- Name
    Smooth,                  !- Roughness
    0.060,                   !- Thickness {m}
    0.042,                   !- Conductivity {W/m-K}
    15,                      !- Density {kg/m3}
    1300,                    !- Specific Heat {J/kg-K}
    0.90,                    !- Thermal Absorptance
    0.60,                    !- Solar Absorptance
    0.60;                    !- Visible Absorptance

Material,
    Gesso,                   !- Name
    Smooth,                  !- Roughness
    0.015,                   !- Thickness {m}
    0.40,                    !- Conductivity {W/m-K}
    1000,                    !- Density {kg/m3}
    1000,                    !- Specific Heat {J/kg-K}
    0.90,                    !- Thermal Absorptance
    0.60,                    !- Solar Absorptance
    0.60;                    !- Visible Absorptance

Material,
    Laje,                    !- Name
    MediumRough,             !- Roughness
    0.200,                   !- Thickness {m}
    1.65,                    !- Conductivity {W/m-K}
    2500,                    !- Density {kg/m3}
    960,                     !- Specific Heat {J/kg-K}
    0.90,                    !- Thermal Absorptance
    0.60,                    !- Solar Absorptance
    0.60;                    !- Visible Absorptance

Material,
    Betonilha,               !- Name
    MediumRough,             !- Roughness
    0.050,                   !- Thickness {m}
    0.11,                    !- Conductivity {W/m-K}
    300,                     !- Density {kg/m3}
    900,                     !- Specific Heat {J/kg-K}
    0.90,                    !- Thermal Absorptance
    0.60,                    !- Solar Absorptance
    0.60;                    !- Visible Absorptance

Material,
    Madeira,                 !- Name
    MediumRough,             !- Roughness
    0.020,                   !- Thickness {m}
    0.23,                    !- Conductivity {W/m-K}
    800,                     !- Density {kg/m3}
    2000,                    !- Specific Heat {J/kg-K}
    0.90,                    !- Thermal Absorptance
    0.60,                    !- Solar Absorptance
    0.60;                    !- Visible Absorptance


!-   ===========  ALL OBJECTS IN CLASS: WINDOWMATERIAL:SIMPLEGLAZINGSYSTEM ===========

WindowMaterial:SimpleGlazingSystem,
    Janela_Double,           !- Name
    2.4,                     !- U-Factor {W/m2-K}
    0.50,                    !- Solar Heat Gain Coefficient
    0.60;                    !- Visible Transmittance


!-   ===========  ALL OBJECTS IN CLASS: CONSTRUCTION ===========

Construction,
    Const_ExtWall,           !- Name
    PedraRevestimento,       !- Outside Layer
    Tijolo,                  !- Layer 2
    EPS_Wall_06cm,           !- Layer 3
    Gesso;                   !- Layer 4

Construction,
    Const_Roof,              !- Name
    Betonilha,               !- Outside Layer
    EPS_Wall_06cm,           !- Layer 2
    Laje,                    !- Layer 3
    Gesso;                   !- Layer 4

Construction,
    Const_GroundFloor,       !- Name
    Laje,                    !- Outside Layer
    EPS_Wall_06cm,           !- Layer 2
    Betonilha,               !- Layer 3
    Madeira;                 !- Layer 4

Construction,
    Const_IntFloor,          !- Name
    Madeira,                 !- Outside Layer
    Betonilha,               !- Layer 2
    Laje,                    !- Layer 3
    Gesso;                   !- Layer 4

Construction,
    Const_IntWall,           !- Name
    Gesso,                   !- Outside Layer
    Tijolo,                  !- Layer 2
    Gesso;                   !- Layer 3

Construction,
    Const_Window_PT,         !- Name
    Janela_Double;           !- Outside Layer

Construction,
    Const_Int_Floor_Rev,     !- Name
    Gesso,                   !- Outside Layer
    Laje,                    !- Layer 2
    Betonilha,               !- Layer 3
    Madeira;                 !- Layer 4


!-   ===========  ALL OBJECTS IN CLASS: GLOBALGEOMETRYRULES ===========

GlobalGeometryRules,
    UpperRightCorner,        !- Starting Vertex Position
    Clockwise,               !- Vertex Entry Direction
    Relative,                !- Coordinate System
    Relative,                !- Daylighting Reference Point Coordinate System
    Relative;                !- Rectangular Surface Coordinate System


!-   ===========  ALL OBJECTS IN CLASS: SPACE ===========

Space,
    Space_Living,            !- Name
    GF_Living_Room,          !- Zone Name
    ,                        !- Ceiling Height {m}
    ,                        !- Volume {m3}
    ,                        !- Floor Area {m2}
    ;                        !- Space Type

Space,
    Space_Kitchen,           !- Name
    GF_Kitchen,              !- Zone Name
    ,                        !- Ceiling Height {m}
    ,                        !- Volume {m3}
    ,                        !- Floor Area {m2}
    ;                        !- Space Type

Space,
    Space_Bedroom,           !- Name
    UF_Bedroom,              !- Zone Name
    ,                        !- Ceiling Height {m}
    ,                        !- Volume {m3}
    ,                        !- Floor Area {m2}
    ;                        !- Space Type

Space,
    Space_Bathroom,          !- Name
    UF_Bathroom,             !- Zone Name
    ,                        !- Ceiling Height {m}
    ,                        !- Volume {m3}
    ,                        !- Floor Area {m2}
    ;                        !- Space Type

Space,
    Space_Storage,           !- Name
    UF_Storage_Room,         !- Zone Name
    ,                        !- Ceiling Height {m}
    ,                        !- Volume {m3}
    ,                        !- Floor Area {m2}
    ;                        !- Space Type


!-   ===========  ALL OBJECTS IN CLASS: ZONE ===========

Zone,
    GF_Living_Room;          !- Name

Zone,
    GF_Kitchen;              !- Name

Zone,
    UF_Bedroom;              !- Name

Zone,
    UF_Bathroom;             !- Name

Zone,
    UF_Storage_Room;         !- Name

!-   ===========  ALL OBJECTS IN CLASS: DESIGNSPECIFICATION:OUTDOORAIR ===========

DesignSpecification:OutdoorAir,
    DSOA_Res,                !- Name
    Flow/Area,               !- Outdoor Air Method
    ,                        !- Outdoor Air Flow per Person {m3/s-person}
    0.0003,                  !- Outdoor Air Flow per Zone Floor Area {m3/s-m2}
    ,                        !- Outdoor Air Flow per Zone {m3/s}
    ,                        !- Outdoor Air Flow Air Changes per Hour {1/hr}
    ;                        !- Outdoor Air Flow Rate Fraction Schedule Name

!-   ===========  ALL OBJECTS IN CLASS: PEOPLE ===========

People,
    People_Liv,              !- Name
    GF_Living_Room,          !- Zone or ZoneList or Space or SpaceList Name
    Occupancy_Sch,           !- Number of People Schedule Name
    People/Area,             !- Number of People Calculation Method
    ,                        !- Number of People
    0.025,                   !- People per Floor Area {person/m2}
    ,                        !- Floor Area per Person {m2/person}
    0.3,                     !- Fraction Radiant
    autocalculate,           !- Sensible Heat Fraction
    Occ_Activity_Sch;        !- Activity Level Schedule Name

People,
    People_Kit,              !- Name
    GF_Kitchen,              !- Zone or ZoneList or Space or SpaceList Name
    Occupancy_Sch,           !- Number of People Schedule Name
    People/Area,             !- Number of People Calculation Method
    ,                        !- Number of People
    0.025,                   !- People per Floor Area {person/m2}
    ,                        !- Floor Area per Person {m2/person}
    0.3,                     !- Fraction Radiant
    autocalculate,           !- Sensible Heat Fraction
    Occ_Activity_Sch;        !- Activity Level Schedule Name

People,
    People_Bed,              !- Name
    UF_Bedroom,              !- Zone or ZoneList or Space or SpaceList Name
    Occupancy_Sch,           !- Number of People Schedule Name
    People/Area,             !- Number of People Calculation Method
    ,                        !- Number of People
    0.025,                   !- People per Floor Area {person/m2}
    ,                        !- Floor Area per Person {m2/person}
    0.3,                     !- Fraction Radiant
    autocalculate,           !- Sensible Heat Fraction
    Occ_Activity_Sch;        !- Activity Level Schedule Name

People,
    People_Bath,             !- Name
    UF_Bathroom,             !- Zone or ZoneList or Space or SpaceList Name
    Occupancy_Sch,           !- Number of People Schedule Name
    People/Area,             !- Number of People Calculation Method
    ,                        !- Number of People
    0.025,                   !- People per Floor Area {person/m2}
    ,                        !- Floor Area per Person {m2/person}
    0.3,                     !- Fraction Radiant
    autocalculate,           !- Sensible Heat Fraction
    Occ_Activity_Sch;        !- Activity Level Schedule Name

People,
    People_Sto,              !- Name
    UF_Storage_Room,         !- Zone or ZoneList or Space or SpaceList Name
    Occupancy_Sch,           !- Number of People Schedule Name
    People/Area,             !- Number of People Calculation Method
    ,                        !- Number of People
    0.025,                   !- People per Floor Area {person/m2}
    ,                        !- Floor Area per Person {m2/person}
    0.3,                     !- Fraction Radiant
    autocalculate,           !- Sensible Heat Fraction
    Occ_Activity_Sch;        !- Activity Level Schedule Name

!-   ===========  ALL OBJECTS IN CLASS: LIGHTS ===========

Lights,
    Lights_Liv,              !- Name
    GF_Living_Room,          !- Zone or ZoneList or Space or SpaceList Name
    Lighting_Sch,            !- Schedule Name
    Watts/Area,              !- Design Level Calculation Method
    ,                        !- Lighting Level {W}
    5.0,                     !- Watts per Zone Floor Area {W/m2}
    ,                        !- Watts per Person {W/person}
    0.0,                     !- Return Air Fraction
    0.59,                    !- Fraction Radiant
    0.2,                     !- Fraction Visible
    1.0,                     !- Fraction Replaceable
    GeneralLights;           !- End-Use Subcategory

Lights,
    Lights_Kit,              !- Name
    GF_Kitchen,              !- Zone or ZoneList or Space or SpaceList Name
    Lighting_Sch,            !- Schedule Name
    Watts/Area,              !- Design Level Calculation Method
    ,                        !- Lighting Level {W}
    5.0,                     !- Watts per Zone Floor Area {W/m2}
    ,                        !- Watts per Person {W/person}
    0.0,                     !- Return Air Fraction
    0.59,                    !- Fraction Radiant
    0.2,                     !- Fraction Visible
    1.0,                     !- Fraction Replaceable
    GeneralLights;           !- End-Use Subcategory

Lights,
    Lights_Bed,              !- Name
    UF_Bedroom,              !- Zone or ZoneList or Space or SpaceList Name
    Lighting_Sch,            !- Schedule Name
    Watts/Area,              !- Design Level Calculation Method
    ,                        !- Lighting Level {W}
    5.0,                     !- Watts per Zone Floor Area {W/m2}
    ,                        !- Watts per Person {W/person}
    0.0,                     !- Return Air Fraction
    0.59,                    !- Fraction Radiant
    0.2,                     !- Fraction Visible
    1.0,                     !- Fraction Replaceable
    GeneralLights;           !- End-Use Subcategory

Lights,
    Lights_Bath,             !- Name
    UF_Bathroom,             !- Zone or ZoneList or Space or SpaceList Name
    Lighting_Sch,            !- Schedule Name
    Watts/Area,              !- Design Level Calculation Method
    ,                        !- Lighting Level {W}
    5.0,                     !- Watts per Zone Floor Area {W/m2}
    ,                        !- Watts per Person {W/person}
    0.0,                     !- Return Air Fraction
    0.59,                    !- Fraction Radiant
    0.2,                     !- Fraction Visible
    1.0,                     !- Fraction Replaceable
    GeneralLights;           !- End-Use Subcategory

Lights,
    Lights_Sto,              !- Name
    UF_Storage_Room,         !- Zone or ZoneList or Space or SpaceList Name
    Lighting_Sch,            !- Schedule Name
    Watts/Area,              !- Design Level Calculation Method
    ,                        !- Lighting Level {W}
    5.0,                     !- Watts per Zone Floor Area {W/m2}
    ,                        !- Watts per Person {W/person}
    0.0,                     !- Return Air Fraction
    0.59,                    !- Fraction Radiant
    0.2,                     !- Fraction Visible
    1.0,                     !- Fraction Replaceable
    GeneralLights;           !- End-Use Subcategory

!-   ===========  ALL OBJECTS IN CLASS: ELECTRICEQUIPMENT ===========

ElectricEquipment,
    Equip_Liv,               !- Name
    GF_Living_Room,          !- Zone or ZoneList or Space or SpaceList Name
    Equipment_Sch,           !- Schedule Name
    Watts/Area,              !- Design Level Calculation Method
    ,                        !- Design Level {W}
    4.0,                     !- Watts per Zone Floor Area {W/m2}
    ,                        !- Watts per Person {W/person}
    0.0,                     !- Fraction Latent
    0.2,                     !- Fraction Radiant
    0.0,                     !- Fraction Lost
    GeneralPlug;             !- End-Use Subcategory

ElectricEquipment,
    Equip_Kit,               !- Name
    GF_Kitchen,              !- Zone or ZoneList or Space or SpaceList Name
    Equipment_Sch,           !- Schedule Name
    Watts/Area,              !- Design Level Calculation Method
    ,                        !- Design Level {W}
    4.0,                     !- Watts per Zone Floor Area {W/m2}
    ,                        !- Watts per Person {W/person}
    0.0,                     !- Fraction Latent
    0.2,                     !- Fraction Radiant
    0.0,                     !- Fraction Lost
    GeneralPlug;             !- End-Use Subcategory

ElectricEquipment,
    Equip_Bed,               !- Name
    UF_Bedroom,              !- Zone or ZoneList or Space or SpaceList Name
    Equipment_Sch,           !- Schedule Name
    Watts/Area,              !- Design Level Calculation Method
    ,                        !- Design Level {W}
    4.0,                     !- Watts per Zone Floor Area {W/m2}
    ,                        !- Watts per Person {W/person}
    0.0,                     !- Fraction Latent
    0.2,                     !- Fraction Radiant